Version 4
SHEET 1 3460 680
WIRE 1120 -720 1104 -720
WIRE 1296 -720 1200 -720
WIRE 1360 -720 1296 -720
WIRE 1568 -720 1440 -720
WIRE 3280 -720 3184 -720
WIRE 3344 -720 3280 -720
WIRE 3456 -720 3424 -720
WIRE 1296 -704 1296 -720
WIRE 3280 -704 3280 -720
WIRE 1568 -688 1568 -720
WIRE 2624 -672 2464 -672
WIRE 2864 -672 2704 -672
WIRE 544 -656 496 -656
WIRE 720 -656 624 -656
WIRE 784 -656 720 -656
WIRE 896 -656 864 -656
WIRE 720 -640 720 -656
WIRE 2304 -608 2304 -672
WIRE 336 -592 336 -672
WIRE 1296 -592 1296 -624
WIRE 3280 -592 3280 -624
WIRE 1104 -576 1104 -720
WIRE 1568 -576 1568 -608
WIRE 720 -528 720 -560
WIRE 2496 -528 2304 -528
WIRE 2064 -480 1840 -480
WIRE 2464 -480 2464 -672
WIRE 2464 -480 2144 -480
WIRE 2496 -480 2496 -528
WIRE 2496 -480 2464 -480
WIRE 2528 -480 2496 -480
WIRE 96 -464 0 -464
WIRE 336 -464 336 -512
WIRE 336 -464 176 -464
WIRE 496 -464 496 -656
WIRE 496 -464 336 -464
WIRE 560 -464 496 -464
WIRE 2864 -464 2864 -672
WIRE 2864 -464 2592 -464
WIRE 896 -448 896 -656
WIRE 896 -448 624 -448
WIRE 2528 -448 2496 -448
WIRE 560 -432 528 -432
WIRE 528 -400 528 -432
WIRE 1840 -400 1840 -480
WIRE 2064 -400 1840 -400
WIRE 2464 -400 2464 -480
WIRE 2464 -400 2144 -400
WIRE 96 -384 0 -384
WIRE 496 -384 496 -464
WIRE 496 -384 176 -384
WIRE 528 -384 528 -400
WIRE 1840 -320 1840 -400
WIRE 2496 -288 2496 -448
WIRE 528 -272 528 -304
WIRE -432 -192 -432 -272
WIRE -304 -192 -304 -272
WIRE -128 -192 -128 -272
WIRE 96 -192 96 -272
WIRE -432 -32 -432 -112
WIRE -368 -32 -432 -32
WIRE -304 -32 -304 -112
WIRE -304 -32 -368 -32
WIRE -128 -32 -128 -112
WIRE -48 -32 -128 -32
WIRE 96 -32 96 -112
WIRE 96 -32 -48 -32
WIRE -368 0 -368 -32
WIRE -48 0 -48 -32
FLAG -368 0 0
FLAG -48 0 0
FLAG 720 -528 0
FLAG 528 -272 0
FLAG -128 -272 vin1
FLAG 96 -272 vin2
FLAG 0 -464 vin1
FLAG 0 -384 vin2
FLAG -432 -272 vcc
FLAG -304 -272 vss
FLAG 592 -416 vss
FLAG 592 -480 vcc
FLAG 896 -448 vo
FLAG 1296 -592 0
FLAG 1104 -576 0
FLAG 1568 -576 0
FLAG 1568 -720 Vth
FLAG 528 -400 vos
FLAG 336 -672 0
FLAG 3280 -592 0
FLAG 2496 -288 0
FLAG 2560 -432 vss
FLAG 2560 -496 vcc
FLAG 1840 -320 0
FLAG 2304 -672 0
DATAFLAG 816 -448 ""
DATAFLAG 2816 -464 ""
SYMBOL Opamps\\opamp2 592 -512 R0
SYMATTR InstName U1
SYMATTR Value LM324
SYMBOL voltage -432 -208 R0
WINDOW 123 0 0 Left 0
WINDOW 39 0 0 Left 0
SYMATTR InstName V1
SYMATTR Value 10
SYMBOL voltage -304 -96 R180
WINDOW 0 24 96 Left 2
WINDOW 3 24 16 Left 2
WINDOW 123 0 0 Left 0
WINDOW 39 0 0 Left 0
SYMATTR InstName V2
SYMATTR Value 10
SYMBOL voltage -128 -208 R0
WINDOW 123 24 44 Left 2
WINDOW 39 24 72 Left 2
WINDOW 3 24 100 Left 2
SYMATTR Value2 AC {Vac1}
SYMATTR SpiceLine Rser=100k
SYMATTR InstName V3
SYMATTR Value ""
SYMBOL voltage 96 -208 R0
WINDOW 123 24 44 Left 2
WINDOW 39 24 72 Left 2
WINDOW 3 24 100 Left 2
SYMATTR Value2 AC {Vac2}
SYMATTR SpiceLine Rser=100k
SYMATTR InstName V4
SYMATTR Value ""
SYMBOL res 640 -672 R90
WINDOW 0 0 56 VBottom 2
WINDOW 3 32 56 VTop 2
SYMATTR InstName R2
SYMATTR Value {Ra}
SYMBOL res 736 -544 R180
WINDOW 0 36 76 Left 2
WINDOW 3 36 40 Left 2
SYMATTR InstName R3
SYMATTR Value {Rc}
SYMBOL res 768 -640 R270
WINDOW 0 32 56 VTop 2
WINDOW 3 0 56 VBottom 2
SYMATTR InstName R4
SYMATTR Value {Rb}
SYMBOL res 192 -400 R90
WINDOW 0 0 56 VBottom 2
WINDOW 3 32 56 VTop 2
SYMATTR InstName R5
SYMATTR Value {R}
SYMBOL res 192 -480 R90
WINDOW 0 0 56 VBottom 2
WINDOW 3 32 56 VTop 2
SYMATTR InstName R1
SYMATTR Value {R}
SYMBOL res 1216 -736 R90
WINDOW 0 0 56 VBottom 2
WINDOW 3 32 56 VTop 2
SYMATTR InstName R6
SYMATTR Value {Ra}
SYMBOL res 1312 -608 R180
WINDOW 0 36 76 Left 2
WINDOW 3 36 40 Left 2
SYMATTR InstName R7
SYMATTR Value {Rc}
SYMBOL res 1344 -704 R270
WINDOW 0 32 56 VTop 2
WINDOW 3 0 56 VBottom 2
SYMATTR InstName R8
SYMATTR Value {Rb}
SYMBOL voltage 1568 -704 R0
WINDOW 123 24 44 Left 2
WINDOW 39 0 0 Left 0
SYMATTR InstName V5
SYMATTR Value ""
SYMATTR Value2 AC 1
SYMBOL voltage 528 -400 R0
WINDOW 0 41 57 Left 2
WINDOW 123 41 85 Left 2
WINDOW 39 0 0 Left 0
SYMATTR InstName V6
SYMATTR Value 0
SYMBOL current 336 -592 R0
WINDOW 0 24 80 Left 2
WINDOW 3 24 0 Left 2
WINDOW 123 0 0 Left 0
WINDOW 39 0 0 Left 0
SYMATTR InstName I1
SYMATTR Value 45n
SYMBOL Opamps\\opamp2 2560 -528 R0
SYMATTR InstName U2
SYMATTR Value LM324
SYMBOL res 3200 -736 R90
WINDOW 0 0 56 VBottom 2
WINDOW 3 32 56 VTop 2
SYMATTR InstName R9
SYMATTR Value {Ra}
SYMBOL res 3296 -608 R180
WINDOW 0 36 76 Left 2
WINDOW 3 36 40 Left 2
SYMATTR InstName R10
SYMATTR Value {Rc}
SYMBOL res 3328 -704 R270
WINDOW 0 32 56 VTop 2
WINDOW 3 0 56 VBottom 2
SYMATTR InstName R11
SYMATTR Value {Rb}
SYMBOL res 2160 -416 R90
WINDOW 0 0 56 VBottom 2
WINDOW 3 32 56 VTop 2
SYMATTR InstName R12
SYMATTR Value 500
SYMBOL res 2160 -496 R90
WINDOW 0 0 56 VBottom 2
WINDOW 3 32 56 VTop 2
SYMATTR InstName R13
SYMATTR Value 500
SYMBOL current 2304 -608 R0
WINDOW 0 24 80 Left 2
WINDOW 3 24 0 Left 2
WINDOW 123 0 0 Left 0
WINDOW 39 0 0 Left 0
SYMATTR InstName I2
SYMATTR Value 45n
SYMBOL res 2720 -688 R90
WINDOW 0 0 56 VBottom 2
WINDOW 3 32 56 VTop 2
SYMATTR InstName R14
SYMATTR Value 15k
TEXT 152 168 Left 2 !.lib "D:\\dario\\cuarto\\sintesis de redes\\repoSistesisDeRedes\\Laboratorios\\LM324.lib.txt"
TEXT 328 -112 Left 2 !.param R=1Meg, Ra=150k,Rb=200k,Rc=1000\n.param Vac1=0, Vac2=0
TEXT 328 -48 Left 2 !*.ac dec 100 1 1Meg
TEXT 328 0 Left 2 !*.tran 0 10m 0 0.01
TEXT 326 20 Left 2 !.op
