Version 4
SHEET 1 1196 680
WIRE 544 -656 496 -656
WIRE 720 -656 624 -656
WIRE 784 -656 720 -656
WIRE 896 -656 864 -656
WIRE 720 -640 720 -656
WIRE 720 -528 720 -560
WIRE 272 -464 176 -464
WIRE 496 -464 496 -656
WIRE 496 -464 352 -464
WIRE 560 -464 496 -464
WIRE 896 -448 896 -656
WIRE 896 -448 624 -448
WIRE 560 -432 528 -432
WIRE 272 -384 176 -384
WIRE 496 -384 496 -464
WIRE 496 -384 352 -384
WIRE 528 -304 528 -432
WIRE -432 -192 -432 -272
WIRE -304 -192 -304 -272
WIRE -128 -192 -128 -272
WIRE 32 -192 32 -272
WIRE -432 -32 -432 -112
WIRE -368 -32 -432 -32
WIRE -304 -32 -304 -112
WIRE -304 -32 -368 -32
WIRE -128 -32 -128 -112
WIRE -48 -32 -128 -32
WIRE 32 -32 32 -112
WIRE 32 -32 -48 -32
WIRE -368 0 -368 -32
WIRE -48 0 -48 -32
FLAG -368 0 0
FLAG -48 0 0
FLAG 720 -528 0
FLAG 528 -304 0
FLAG -128 -272 vin1
FLAG 32 -272 vin2
FLAG 176 -464 vin1
FLAG 176 -384 vin2
FLAG -432 -272 vcc
FLAG -304 -272 vss
FLAG 592 -416 vss
FLAG 592 -480 vcc
FLAG 896 -448 vo
SYMBOL Opamps\\opamp2 592 -512 R0
SYMATTR InstName U1
SYMATTR Value LM324
SYMBOL voltage -432 -208 R0
WINDOW 123 0 0 Left 0
WINDOW 39 0 0 Left 0
SYMATTR InstName V1
SYMATTR Value 10
SYMBOL voltage -304 -96 R180
WINDOW 0 24 96 Left 2
WINDOW 3 24 16 Left 2
WINDOW 123 0 0 Left 0
WINDOW 39 0 0 Left 0
SYMATTR InstName V2
SYMATTR Value 10
SYMBOL voltage -128 -208 R0
WINDOW 123 24 44 Left 2
WINDOW 39 0 0 Left 0
SYMATTR InstName V3
SYMATTR Value ""
SYMATTR Value2 AC {Vac1}
SYMBOL voltage 32 -208 R0
WINDOW 123 24 44 Left 2
WINDOW 39 0 0 Left 0
SYMATTR InstName V4
SYMATTR Value ""
SYMATTR Value2 AC {Vac2}
SYMBOL res 640 -672 R90
WINDOW 0 0 56 VBottom 2
WINDOW 3 32 56 VTop 2
SYMATTR InstName R2
SYMATTR Value {Ra}
SYMBOL res 736 -544 R180
WINDOW 0 36 76 Left 2
WINDOW 3 36 40 Left 2
SYMATTR InstName R3
SYMATTR Value {Rc}
SYMBOL res 768 -640 R270
WINDOW 0 32 56 VTop 2
WINDOW 3 0 56 VBottom 2
SYMATTR InstName R4
SYMATTR Value {Rb}
SYMBOL res 368 -400 R90
WINDOW 0 0 56 VBottom 2
WINDOW 3 32 56 VTop 2
SYMATTR InstName R5
SYMATTR Value {R}
SYMBOL res 368 -480 R90
WINDOW 0 0 56 VBottom 2
WINDOW 3 32 56 VTop 2
SYMATTR InstName R1
SYMATTR Value {R}
TEXT 152 168 Left 2 !.lib "D:\\dario\\cuarto\\sintesis de redes\\repoSistesisDeRedes\\Laboratorios\\LM324.lib.txt"
TEXT 352 -216 Left 2 !.param R=1Meg, Ra=150k,Rb=200k,Rc=1000\n.param Vac1=1, Vac2=0
TEXT -466 188 Left 2 !.ac dec 100 1 1Meg
